
Circuit: 

Doing analysis at TEMP = 27.000000 and TNOM = 27.000000


No. of Data Rows : 1
power_m1 = 4.901922e-05
Doing analysis at TEMP = 27.000000 and TNOM = 27.000000


No. of Data Rows : 2001
ERROR: (internal)  This operation is not defined for display type printf.
Can't open viewport for graphics.
Doing analysis at TEMP = 27.000000 and TNOM = 27.000000


No. of Data Rows : 1101
ERROR: (internal)  This operation is not defined for display type printf.
Can't open viewport for graphics.
vdb(output)[0] = 4.191113e+01
ERROR: (internal)  This operation is not defined for display type printf.
Can't open viewport for graphics.
Note: No ".plot", ".print", or ".fourier" lines; no simulations run
