
Circuit: 

Doing analysis at TEMP = 27.000000 and TNOM = 27.000000

Warning: v2: no DC value, transient time 0 value used
Note: Starting dynamic gmin stepping
Trying gmin =   1.0000E-03 Note: One successful gmin step
Trying gmin =   1.0000E-04 Note: One successful gmin step
Trying gmin =   1.0000E-05 Warning: Further gmin increment
Trying gmin =   5.6234E-05 Note: One successful gmin step
Trying gmin =   2.3714E-05 Note: One successful gmin step
Trying gmin =   6.4938E-06 Note: One successful gmin step
Trying gmin =   9.3057E-07 Note: One successful gmin step
Trying gmin =   9.3057E-08 Note: One successful gmin step
Trying gmin =   9.3057E-09 Note: One successful gmin step
Trying gmin =   9.3057E-10 Note: One successful gmin step
Trying gmin =   9.3057E-11 Note: One successful gmin step
Trying gmin =   9.3057E-12 Note: One successful gmin step
Trying gmin =   1.0000E-12 Note: One successful gmin step
Note: Dynamic gmin stepping completed

Initial Transient Solution
--------------------------

Node                                   Voltage
----                                   -------
power                                        2
vin2                                       0.5
m1g                                    1.35498
m2d                                    1.45292
output                                0.505307
m3s                                  0.0905813
m6d                                   0.913777
c1r2                                  0.505307
v2#branch                                    0
v0#branch                         -0.000119612


No. of Data Rows : 5024
ERROR: (internal)  This operation is not defined for display type printf.
Can't open viewport for graphics.
Note: No ".plot", ".print", or ".fourier" lines; no simulations run
